/*--------------------------------*- C++ -*----------------------------------*\
| =========                 |                                                 |
| \\      /  F ield         | OpenFOAM: The Open Source CFD Toolbox           |
|  \\    /   O peration     | Version:  5.x                                   |
|   \\  /    A nd           | Web:      www.OpenFOAM.org                      |
|    \\/     M anipulation  |                                                 |
\*---------------------------------------------------------------------------*/
FoamFile
{
    version     2.0;
    format      ascii;
    class       extendedFeatureEdgeMesh;
    location    "constant/extendedFeatureEdgeMesh";
    object      Surface.extendedFeatureEdgeMesh;
}
// * * * * * * * * * * * * * * * * * * * * * * * * * * * * * * * * * * * * * //

// points

60
(
(0.11871 0 100)
(0.144355 0.030684 100)
(0.144355 0.030684 -100)
(0.11871 0 -100)
(0.109945 0.048951 100)
(0.109945 0.048951 -100)
(0.117008 0.085011 100)
(0.117008 0.085011 -100)
(0.07796 0.086584 100)
(0.07796 0.086584 -100)
(0.063535 0.110046 100)
(0.063535 0.110046 -100)
(0.029233 0.08997 100)
(0.029233 0.08997 -100)
(0.010294 0.097941 100)
(0.010294 0.097941 -100)
(-0.010537 0.032431 100)
(-0.010537 0.032431 -100)
(-0.049161 0.054599 100)
(-0.049161 0.054599 -100)
(-0.016508 0.00735 100)
(-0.016508 0.00735 -100)
(-0.051079 0.010857 100)
(-0.051079 0.010857 -100)
(-0.05649 0 100)
(-0.05649 0 -100)
(-0.035155 -0.007472 100)
(-0.035155 -0.007472 -100)
(-0.048905 -0.035532 100)
(-0.048905 -0.035532 -100)
(-0.01726 -0.029895 100)
(-0.01726 -0.029895 -100)
(-0.015083 -0.046421 100)
(-0.015083 -0.046421 -100)
(-0.002519 -0.023968 100)
(-0.002519 -0.023968 -100)
(0.002356 -0.022417 100)
(0.002356 -0.022417 -100)
(0.019088 -0.058747 100)
(0.019088 -0.058747 -100)
(0.03035 -0.052568 100)
(0.03035 -0.052568 -100)
(0.016889 -0.018757 100)
(0.016889 -0.018757 -100)
(0.030136 -0.021895 100)
(0.030136 -0.021895 -100)
(0.034249 -0.015249 100)
(0.034249 -0.015249 -100)
(0.016423 -0.003491 100)
(0.016423 -0.003491 -100)
(-0.007246 0.06894 100)
(-0.007246 0.06894 -100)
(-0.022025 0.038148 100)
(-0.022025 0.038148 -100)
(-0.038542 0.028002 100)
(-0.038542 0.028002 -100)
(-0.03889 -0.017315 100)
(-0.03889 -0.017315 -100)
(-0.031877 -0.035403 100)
(-0.031877 -0.035403 -100)
)

// edges

85
(
(4 5)
(8 9)
(12 13)
(16 17)
(20 21)
(26 27)
(30 31)
(34 35)
(36 37)
(42 43)
(48 49)
(1 2)
(3 0)
(6 7)
(10 11)
(14 15)
(18 19)
(22 23)
(24 25)
(28 29)
(32 33)
(38 39)
(40 41)
(44 45)
(46 47)
(0 1)
(2 3)
(1 4)
(5 2)
(4 6)
(7 5)
(6 8)
(9 7)
(8 10)
(11 9)
(10 12)
(13 11)
(12 14)
(15 13)
(14 50)
(51 15)
(50 16)
(17 51)
(16 52)
(53 17)
(52 18)
(19 53)
(18 54)
(55 19)
(54 20)
(21 55)
(20 22)
(23 21)
(22 24)
(25 23)
(24 26)
(27 25)
(26 56)
(57 27)
(56 28)
(29 57)
(28 58)
(59 29)
(58 30)
(31 59)
(30 32)
(33 31)
(32 34)
(35 33)
(34 36)
(37 35)
(36 38)
(39 37)
(38 40)
(41 39)
(40 42)
(43 41)
(42 44)
(45 43)
(44 46)
(47 45)
(46 48)
(49 47)
(48 0)
(3 49)
)

// concaveStart mixedStart nonFeatureStart
0 0 50
// internalStart flatStart openStart multipleStart
11 25 25 85
// normals

60
(
(-0.767298 0.641291 0)
(-0.767298 0.641291 0)
(-0.468889 -0.883257 0)
(-0.468889 -0.883257 -0)
(-0.981353 0.192216 0)
(-0.981353 0.192216 0)
(-0.0402512 -0.99919 0)
(-0.0402512 -0.99919 -0)
(-0.851871 -0.523751 0)
(-0.851871 -0.523751 -0)
(0.505119 -0.86305 0)
(0.505119 -0.86305 0)
(-0.38792 -0.921693 0)
(-0.38792 -0.921693 -0)
(0.855673 -0.517517 0)
(0.855673 -0.517517 0)
(0.995962 -0.0897781 0)
(0.995962 -0.0897781 0)
(-0.44553 -0.895267 0)
(-0.44553 -0.895267 -0)
(-0.518416 -0.855129 0)
(-0.518416 -0.855129 -0)
(0.928715 0.370795 0)
(0.928715 0.370795 0)
(0.683855 0.729618 0)
(0.683855 0.729618 0)
(-0.100925 -0.994894 0)
(-0.100925 -0.994894 -0)
(0.895004 -0.446059 0)
(0.895004 -0.446059 0)
(0.330538 0.943793 0)
(0.330538 0.943793 0)
(0.934952 -0.354775 0)
(0.934952 -0.354775 0)
(0.876304 -0.481758 0)
(0.876304 -0.481758 0)
(-0.00757572 0.999971 0)
(-0.00757572 0.999971 0)
(-0.352617 0.935768 0)
(-0.352617 0.935768 0)
(0.991435 0.130604 0)
(0.991435 0.130604 0)
(-0.872666 0.488317 0)
(-0.872666 0.488317 0)
(-0.30318 0.952933 0)
(-0.30318 0.952933 0)
(0.908299 0.418322 0)
(0.908299 0.418322 0)
(-0.481016 0.876712 0)
(-0.481016 0.876712 0)
(-0.929076 -0.369888 0)
(-0.929076 -0.369888 -0)
(0.230505 0.973071 0)
(0.230505 0.973071 0)
(-0.850333 0.526244 0)
(-0.850333 0.526244 0)
(-0.550609 -0.834764 0)
(-0.550609 -0.834764 -0)
(-0.0341096 0.999418 0)
(-0.0341096 0.999418 0)
)

// normal volume types

60
(
0
0
0
0
0
0
0
0
0
0
0
0
0
0
0
0
0
0
0
0
0
0
0
0
0
0
0
0
0
0
0
0
0
0
0
0
0
0
0
0
0
0
0
0
0
0
0
0
0
0
0
0
0
0
0
0
0
0
0
0
)

// normalDirections

85
(
2(1 -1)
2(1 -1)
2(1 -1)
2(1 -1)
2(1 -1)
2(1 -1)
2(1 -1)
2(1 -1)
2(1 -1)
2(1 -1)
2(1 -1)
2(1 -1)
2(1 -1)
2(1 -1)
2(1 -1)
2(1 -1)
2(1 -1)
2(1 -1)
2(1 -1)
2(1 -1)
2(1 -1)
2(1 -1)
2(1 -1)
2(1 -1)
2(1 -1)
1(1)
1(1)
1(1)
1(1)
1(1)
1(1)
1(1)
1(1)
1(1)
1(1)
1(1)
1(1)
1(1)
1(1)
1(1)
1(1)
1(1)
1(1)
1(1)
1(1)
1(1)
1(1)
1(1)
1(1)
1(1)
1(1)
1(1)
1(1)
1(1)
1(1)
1(1)
1(1)
1(1)
1(1)
1(1)
1(1)
1(1)
1(1)
1(1)
1(1)
1(1)
1(1)
1(1)
1(1)
1(1)
1(1)
1(1)
1(1)
1(1)
1(1)
1(1)
1(1)
1(1)
1(1)
1(1)
1(1)
1(1)
1(1)
1(1)
1(1)
)

// edgeNormals

85
(
2(2 5)
2(6 9)
2(10 13)
2(16 19)
2(24 27)
2(30 33)
2(38 41)
2(42 45)
2(44 47)
2(50 53)
2(56 59)
2(0 3)
2(1 58)
2(4 7)
2(8 11)
2(12 15)
2(20 23)
2(26 29)
2(28 31)
2(34 37)
2(40 43)
2(46 49)
2(48 51)
2(52 55)
2(54 57)
1(0)
1(1)
1(2)
1(3)
1(4)
1(5)
1(6)
1(7)
1(8)
1(9)
1(10)
1(11)
1(12)
1(13)
1(14)
1(15)
1(16)
1(17)
1(18)
1(19)
1(20)
1(21)
1(22)
1(23)
1(24)
1(25)
1(26)
1(27)
1(28)
1(29)
1(30)
1(31)
1(32)
1(33)
1(34)
1(35)
1(36)
1(37)
1(38)
1(39)
1(40)
1(41)
1(42)
1(43)
1(44)
1(45)
1(46)
1(47)
1(48)
1(49)
1(50)
1(51)
1(52)
1(53)
1(54)
1(55)
1(56)
1(57)
1(58)
1(59)
)

// featurePointNormals

50
(
2(1 58)
2(0 3)
2(0 3)
2(1 58)
2(2 5)
2(2 5)
2(4 7)
2(4 7)
2(6 9)
2(6 9)
2(8 11)
2(8 11)
2(10 13)
2(10 13)
2(12 15)
2(12 15)
2(16 19)
2(16 19)
2(20 23)
2(20 23)
2(24 27)
2(24 27)
2(26 29)
2(26 29)
2(28 31)
2(28 31)
2(30 33)
2(30 33)
2(34 37)
2(34 37)
2(38 41)
2(38 41)
2(40 43)
2(40 43)
2(42 45)
2(42 45)
2(44 47)
2(44 47)
2(46 49)
2(46 49)
2(48 51)
2(48 51)
2(50 53)
2(50 53)
2(52 55)
2(52 55)
2(54 57)
2(54 57)
2(56 59)
2(56 59)
)

// featurePointEdges

50
(
3(12 25 83)
3(11 25 27)
3(11 26 28)
3(12 26 84)
3(0 27 29)
3(0 28 30)
3(13 29 31)
3(13 30 32)
3(1 31 33)
3(1 32 34)
3(14 33 35)
3(14 34 36)
3(2 35 37)
3(2 36 38)
3(15 37 39)
3(15 38 40)
3(3 41 43)
3(3 42 44)
3(16 45 47)
3(16 46 48)
3(4 49 51)
3(4 50 52)
3(17 51 53)
3(17 52 54)
3(18 53 55)
3(18 54 56)
3(5 55 57)
3(5 56 58)
3(19 59 61)
3(19 60 62)
3(6 63 65)
3(6 64 66)
3(20 65 67)
3(20 66 68)
3(7 67 69)
3(7 68 70)
3(8 69 71)
3(8 70 72)
3(21 71 73)
3(21 72 74)
3(22 73 75)
3(22 74 76)
3(9 75 77)
3(9 76 78)
3(23 77 79)
3(23 78 80)
3(24 79 81)
3(24 80 82)
3(10 81 83)
3(10 82 84)
)

// regionEdges

60
(
25
26
27
28
29
30
31
32
33
34
35
36
37
38
39
40
41
42
43
44
45
46
47
48
49
50
51
52
53
54
55
56
57
58
59
60
61
62
63
64
65
66
67
68
69
70
71
72
73
74
75
76
77
78
79
80
81
82
83
84
)



// ************************************************************************* //
