/*--------------------------------*- C++ -*----------------------------------*\
| =========                 |                                                 |
| \\      /  F ield         | OpenFOAM: The Open Source CFD Toolbox           |
|  \\    /   O peration     | Version:  5.x                                   |
|   \\  /    A nd           | Web:      www.OpenFOAM.org                      |
|    \\/     M anipulation  |                                                 |
\*---------------------------------------------------------------------------*/
FoamFile
{
    version     2.0;
    format      ascii;
    class       featureEdgeMesh;
    location    "constant/triSurface";
    object      Surface.eMesh;
}
// * * * * * * * * * * * * * * * * * * * * * * * * * * * * * * * * * * * * * //


// points:

60
(
(0.11871 0 100)
(0.144355 0.030684 100)
(0.144355 0.030684 -100)
(0.11871 0 -100)
(0.109945 0.048951 100)
(0.109945 0.048951 -100)
(0.117008 0.085011 100)
(0.117008 0.085011 -100)
(0.07796 0.086584 100)
(0.07796 0.086584 -100)
(0.063535 0.110046 100)
(0.063535 0.110046 -100)
(0.029233 0.08997 100)
(0.029233 0.08997 -100)
(0.010294 0.097941 100)
(0.010294 0.097941 -100)
(-0.010537 0.032431 100)
(-0.010537 0.032431 -100)
(-0.049161 0.054599 100)
(-0.049161 0.054599 -100)
(-0.016508 0.00735 100)
(-0.016508 0.00735 -100)
(-0.051079 0.010857 100)
(-0.051079 0.010857 -100)
(-0.05649 0 100)
(-0.05649 0 -100)
(-0.035155 -0.007472 100)
(-0.035155 -0.007472 -100)
(-0.048905 -0.035532 100)
(-0.048905 -0.035532 -100)
(-0.01726 -0.029895 100)
(-0.01726 -0.029895 -100)
(-0.015083 -0.046421 100)
(-0.015083 -0.046421 -100)
(-0.002519 -0.023968 100)
(-0.002519 -0.023968 -100)
(0.002356 -0.022417 100)
(0.002356 -0.022417 -100)
(0.019088 -0.058747 100)
(0.019088 -0.058747 -100)
(0.03035 -0.052568 100)
(0.03035 -0.052568 -100)
(0.016889 -0.018757 100)
(0.016889 -0.018757 -100)
(0.030136 -0.021895 100)
(0.030136 -0.021895 -100)
(0.034249 -0.015249 100)
(0.034249 -0.015249 -100)
(0.016423 -0.003491 100)
(0.016423 -0.003491 -100)
(-0.007246 0.06894 100)
(-0.007246 0.06894 -100)
(-0.022025 0.038148 100)
(-0.022025 0.038148 -100)
(-0.038542 0.028002 100)
(-0.038542 0.028002 -100)
(-0.03889 -0.017315 100)
(-0.03889 -0.017315 -100)
(-0.031877 -0.035403 100)
(-0.031877 -0.035403 -100)
)


// edges:

85
(
(4 5)
(8 9)
(12 13)
(16 17)
(20 21)
(26 27)
(30 31)
(34 35)
(36 37)
(42 43)
(48 49)
(1 2)
(3 0)
(6 7)
(10 11)
(14 15)
(18 19)
(22 23)
(24 25)
(28 29)
(32 33)
(38 39)
(40 41)
(44 45)
(46 47)
(0 1)
(2 3)
(1 4)
(5 2)
(4 6)
(7 5)
(6 8)
(9 7)
(8 10)
(11 9)
(10 12)
(13 11)
(12 14)
(15 13)
(14 50)
(51 15)
(50 16)
(17 51)
(16 52)
(53 17)
(52 18)
(19 53)
(18 54)
(55 19)
(54 20)
(21 55)
(20 22)
(23 21)
(22 24)
(25 23)
(24 26)
(27 25)
(26 56)
(57 27)
(56 28)
(29 57)
(28 58)
(59 29)
(58 30)
(31 59)
(30 32)
(33 31)
(32 34)
(35 33)
(34 36)
(37 35)
(36 38)
(39 37)
(38 40)
(41 39)
(40 42)
(43 41)
(42 44)
(45 43)
(44 46)
(47 45)
(46 48)
(49 47)
(48 0)
(3 49)
)

// * * * * * * * * * * * * * * * * * * * * * * * * * * * * * * * * * * * * * //


// ************************************************************************* //
