/*--------------------------------*- C++ -*----------------------------------*\
| =========                 |                                                 |
| \\      /  F ield         | OpenFOAM: The Open Source CFD Toolbox           |
|  \\    /   O peration     | Version:  5                                     |
|   \\  /    A nd           | Web:      www.OpenFOAM.org                      |
|    \\/     M anipulation  |                                                 |
\*---------------------------------------------------------------------------*/
FoamFile
{
    version     2.0;
    format      ascii;
    class       dictionary;
    location    "system";
    object      controlDict;
}
// * * * * * * * * * * * * * * * * * * * * * * * * * * * * * * * * * * * * * //

application     pimpleDyMFoam;

startFrom       latestTime;

startTime       0;

stopAt          endTime;

endTime         2;

deltaT          1e-4;

writeControl    runTime;//adjustableRunTime;

writeInterval   1;

purgeWrite      0;

writeFormat     ascii;

writePrecision  6;

writeCompression off;

timeFormat      general;

timePrecision   6;

runTimeModifiable true;

adjustTimeStep  no;

maxCo           0.9;

functions
{ 

    forces1
    {
        type                forces;
        libs                ("libforces.so");
        writeControl        timeStep;
        writeInterval       1;
        patches             (VAWT1);
        rho                 rhoInf;
        log                 true;
        rhoInf              1;
        CofR                (0 0 0);
    }
    forces2
    {
        type                forces;
        libs                ("libforces.so");
        writeControl        timeStep;
        writeInterval       1;
        patches             (VAWT2);
        rho                 rhoInf;
        log                 true;
        rhoInf              1;
        CofR                (0 0 0);
    }
    forces3
    {
        type                forces;
        libs                ("libforces.so");
        writeControl        timeStep;
        writeInterval       1;
        patches             (VAWT3);
        rho                 rhoInf;
        log                 true;
        rhoInf              1;
        CofR                (0 0 0);
    }

}
// ************************************************************************* //
